9262
 OpenBabel03162221353D

  9  9  0  0  0  0  0  0  0  0999 V2000
   -0.6808    1.1886   -0.0012 N   0  0  0  0  0  0  0  0  0  0  0  0
   -0.6820   -1.1867   -0.0011 N   0  0  0  0  0  0  0  0  0  0  0  0
    1.3756   -0.0001    0.0024 N   0  0  0  0  0  0  0  0  0  0  0  0
   -1.2850    0.0012   -0.0022 C   0  0  0  0  0  0  0  0  0  0  0  0
    0.6495    1.1168    0.0011 C   0  0  0  0  0  0  0  0  0  0  0  0
    0.6484   -1.1163    0.0012 C   0  0  0  0  0  0  0  0  0  0  0  0
   -2.3697    0.0017   -0.0040 H   0  0  0  0  0  0  0  0  0  0  0  0
    1.1923    2.0559    0.0020 H   0  0  0  0  0  0  0  0  0  0  0  0
    1.1902   -2.0559    0.0021 H   0  0  0  0  0  0  0  0  0  0  0  0
  1  4  2  0  0  0  0
  1  5  1  0  0  0  0
  2  4  1  0  0  0  0
  2  6  2  0  0  0  0
  3  5  2  0  0  0  0
  3  6  1  0  0  0  0
  4  7  1  0  0  0  0
  5  8  1  0  0  0  0
  6  9  1  0  0  0  0
M  END
>  <PUBCHEM_COMPOUND_CID>
9262

>  <PUBCHEM_CONFORMER_RMSD>
0.4

>  <PUBCHEM_CONFORMER_DIVERSEORDER>
1

>  <PUBCHEM_MMFF94_PARTIAL_CHARGES>
9
1 -0.62
2 -0.62
3 -0.62
4 0.47
5 0.47
6 0.47
7 0.15
8 0.15
9 0.15

>  <PUBCHEM_EFFECTIVE_ROTOR_COUNT>
0

>  <PUBCHEM_PHARMACOPHORE_FEATURES>
4
3 1 2 4 cation
3 1 3 5 cation
3 2 3 6 cation
6 1 2 3 4 5 6 rings

>  <PUBCHEM_HEAVY_ATOM_COUNT>
6

>  <PUBCHEM_ATOM_DEF_STEREO_COUNT>
0

>  <PUBCHEM_ATOM_UDEF_STEREO_COUNT>
0

>  <PUBCHEM_BOND_DEF_STEREO_COUNT>
0

>  <PUBCHEM_BOND_UDEF_STEREO_COUNT>
0

>  <PUBCHEM_ISOTOPIC_ATOM_COUNT>
0

>  <PUBCHEM_COMPONENT_COUNT>
1

>  <PUBCHEM_CACTVS_TAUTO_COUNT>
1

>  <PUBCHEM_CONFORMER_ID>
0000242E00000001

>  <PUBCHEM_MMFF94_ENERGY>
12.0852

>  <PUBCHEM_FEATURE_SELFOVERLAP>
23.07

>  <PUBCHEM_SHAPE_FINGERPRINT>
20096714 4 18123190091235069401
21015797 1 9295289443160175303
21040471 1 18410575054656518501

>  <PUBCHEM_SHAPE_MULTIPOLES>
108.53
1.46
1.46
0.57
0.01
0.02
0
-0.02
0
-0.01
0
0
0
0

>  <PUBCHEM_SHAPE_SELFOVERLAP>
220.327

>  <PUBCHEM_SHAPE_VOLUME>
59

>  <PUBCHEM_COORDINATE_TYPE>
2
5
10

$$$$
